Version 4
SHEET 1 2312 1064
WIRE 0 -80 -112 -80
WIRE 16 -80 0 -80
WIRE 160 -80 96 -80
WIRE -176 -64 -304 -64
WIRE 0 -64 0 -80
WIRE -32 -48 -112 -48
WIRE -560 -16 -640 -16
WIRE -304 -16 -304 -64
WIRE -304 -16 -480 -16
WIRE 560 -16 416 -16
WIRE 768 -16 640 -16
WIRE 1136 -16 928 -16
WIRE 1344 -16 1200 -16
WIRE -304 48 -304 -16
WIRE -32 48 -32 -48
WIRE -32 48 -304 48
WIRE 0 48 0 16
WIRE -544 96 -544 64
WIRE 624 96 624 64
WIRE 1152 96 1152 64
WIRE -752 112 -944 112
WIRE -640 112 -640 -16
WIRE -640 112 -672 112
WIRE -576 112 -640 112
WIRE 592 112 512 112
WIRE 1120 112 1072 112
WIRE 160 128 160 -80
WIRE 160 128 -512 128
WIRE 320 128 160 128
WIRE 416 128 416 -16
WIRE 416 128 384 128
WIRE 448 128 416 128
WIRE 512 128 512 112
WIRE 768 128 768 -16
WIRE 768 128 656 128
WIRE 816 128 768 128
WIRE 928 128 928 -16
WIRE 928 128 896 128
WIRE 944 128 928 128
WIRE 1040 128 1024 128
WIRE 1072 128 1072 112
WIRE 1072 128 1040 128
WIRE 1344 128 1344 -16
WIRE 1344 128 1184 128
WIRE 1440 128 1344 128
WIRE -752 144 -944 144
WIRE -624 144 -672 144
WIRE -576 144 -624 144
WIRE 592 144 576 144
WIRE 1120 144 1104 144
WIRE 1792 144 1504 144
WIRE 2000 144 1792 144
WIRE 1440 160 1392 160
WIRE 1104 176 1104 144
WIRE 1216 176 1104 176
WIRE 1344 176 1344 128
WIRE 1344 176 1296 176
WIRE -624 192 -624 144
WIRE 512 192 512 128
WIRE 576 192 576 144
WIRE 656 192 576 192
WIRE 768 192 768 128
WIRE 768 192 736 192
WIRE 1040 192 1040 128
WIRE 1104 192 1104 176
WIRE 1392 192 1392 160
WIRE 1520 192 1392 192
WIRE 1632 192 1616 192
WIRE 1664 192 1632 192
WIRE 1792 192 1792 144
WIRE 1792 192 1744 192
WIRE -144 208 -304 208
WIRE -32 208 -80 208
WIRE 1632 272 1632 192
WIRE 1632 272 1568 272
WIRE -32 304 -32 208
WIRE -32 304 -112 304
WIRE -16 304 -32 304
WIRE 160 304 160 128
WIRE 160 304 64 304
WIRE -624 320 -624 272
WIRE -304 320 -304 208
WIRE -304 320 -624 320
WIRE -176 320 -304 320
WIRE 512 320 512 272
WIRE 576 320 576 272
WIRE 576 320 512 320
WIRE 1040 320 1040 256
WIRE 1104 320 1104 272
WIRE 1104 320 1040 320
WIRE 1392 320 1392 272
WIRE -32 336 -112 336
WIRE -32 352 -32 336
WIRE 1936 384 1760 384
WIRE -864 448 -944 448
WIRE 1760 448 1760 384
WIRE 1936 528 1936 384
WIRE 1760 560 1760 528
WIRE 1760 560 1632 560
WIRE 1568 576 1456 576
WIRE 1696 592 1632 592
WIRE 1760 608 1760 560
WIRE 1456 672 1456 576
WIRE 1696 672 1696 592
WIRE 1696 672 1456 672
WIRE 1760 768 1760 688
WIRE 1856 768 1760 768
WIRE 1936 768 1936 608
WIRE 1936 768 1856 768
WIRE 1856 800 1856 768
FLAG -944 112 Electrode1
IOPIN -944 112 In
FLAG -944 144 Electrode2
IOPIN -944 144 In
FLAG -944 448 Reference/Bone
IOPIN -944 448 In
FLAG 1856 800 0
FLAG 2000 144 ARDUINOPIN
IOPIN 2000 144 Out
FLAG 1472 112 0
FLAG -544 160 0
FLAG 624 64 0
FLAG 1152 64 0
FLAG -144 -96 0
FLAG -144 352 0
FLAG 1936 384 Vcc
FLAG 1456 576 VREF
FLAG 1600 544 0
FLAG 1600 608 Vcc
FLAG -144 -32 Vcc
FLAG -144 288 Vcc
FLAG 624 160 Vcc
FLAG 1152 160 Vcc
FLAG 1472 176 Vcc
FLAG -544 64 Vcc
FLAG -864 448 VREF
FLAG -32 352 VREF
FLAG 0 48 VREF
FLAG 576 320 VREF
FLAG 1104 320 VREF
FLAG 1392 320 VREF
SYMBOL OpAmps\\opamp2 -544 64 R0
SYMATTR InstName U1
SYMATTR Value LM348
SYMATTR SpiceModel LM348
SYMBOL res -464 -32 R90
WINDOW 0 0 56 VBottom 2
WINDOW 3 32 56 VTop 2
SYMATTR InstName R1
SYMATTR Value 10k
SYMBOL res -656 96 R90
WINDOW 0 0 56 VBottom 2
WINDOW 3 32 56 VTop 2
SYMATTR InstName R2
SYMATTR Value 10k
SYMBOL res -656 128 R90
WINDOW 0 0 56 VBottom 2
WINDOW 3 32 56 VTop 2
SYMATTR InstName R3
SYMATTR Value 10k
SYMBOL res -640 176 R0
SYMATTR InstName R4
SYMATTR Value 10k
SYMBOL cap 384 112 R90
WINDOW 0 0 32 VBottom 2
WINDOW 3 32 32 VTop 2
SYMATTR InstName C1
SYMATTR Value 220n
SYMBOL cap 512 112 R90
WINDOW 0 0 32 VBottom 2
WINDOW 3 32 32 VTop 2
SYMATTR InstName C2
SYMATTR Value 220n
SYMBOL OpAmps\\opamp2 624 192 M180
SYMATTR InstName U2
SYMATTR Value LM348
SYMBOL res 496 176 R0
SYMATTR InstName R5
SYMATTR Value 20k
SYMBOL res 560 176 R0
SYMATTR InstName R6
SYMATTR Value 47k
SYMBOL res 752 176 R90
WINDOW 0 0 56 VBottom 2
WINDOW 3 32 56 VTop 2
SYMATTR InstName R7
SYMATTR Value 10k
SYMBOL res 656 -32 R90
WINDOW 0 0 56 VBottom 2
WINDOW 3 32 56 VTop 2
SYMATTR InstName R8
SYMATTR Value 51k
SYMBOL OpAmps\\opamp2 1152 192 M180
SYMATTR InstName U3
SYMATTR Value LM348
SYMBOL res 912 112 R90
WINDOW 0 0 56 VBottom 2
WINDOW 3 32 56 VTop 2
SYMATTR InstName R9
SYMATTR Value 1k
SYMBOL res 1040 112 R90
WINDOW 0 0 56 VBottom 2
WINDOW 3 32 56 VTop 2
SYMATTR InstName R10
SYMATTR Value 1k
SYMBOL cap 1024 192 R0
SYMATTR InstName C3
SYMATTR Value 330n
SYMBOL res 1088 176 R0
SYMATTR InstName R11
SYMATTR Value 47k
SYMBOL res 1312 160 R90
WINDOW 0 0 56 VBottom 2
WINDOW 3 32 56 VTop 2
SYMATTR InstName R12
SYMATTR Value 10k
SYMBOL cap 1200 -32 R90
WINDOW 0 0 32 VBottom 2
WINDOW 3 32 32 VTop 2
SYMATTR InstName C4
SYMATTR Value 330n
SYMBOL OpAmps\\opamp2 1472 208 M180
SYMATTR InstName U4
SYMATTR Value LM348
SYMBOL res 1376 176 R0
SYMATTR InstName R13
SYMATTR Value 1k
SYMBOL pot 1616 176 R90
SYMATTR InstName X1
SYMATTR SpiceLine R = 100k val = 50
SYMBOL res 1760 176 R90
WINDOW 0 0 56 VBottom 2
WINDOW 3 32 56 VTop 2
SYMATTR InstName R14
SYMATTR Value 51k
SYMBOL res 1744 432 R0
SYMATTR InstName R15
SYMATTR Value 100k
SYMBOL res 1744 592 R0
SYMATTR InstName R16
SYMATTR Value 100k
SYMBOL voltage 1936 512 R0
WINDOW 123 0 0 Left 0
WINDOW 39 0 0 Left 0
SYMATTR InstName V1
SYMATTR Value 5
SYMBOL OpAmps\\opamp2 -144 0 R180
SYMATTR InstName U5
SYMATTR Value LM348
SYMBOL OpAmps\\opamp2 -144 256 M0
SYMATTR InstName U6
SYMATTR Value LM348
SYMBOL cap -80 192 R90
WINDOW 0 0 32 VBottom 2
WINDOW 3 32 32 VTop 2
SYMATTR InstName C5
SYMATTR Value 220n
SYMBOL res 80 288 R90
WINDOW 0 0 56 VBottom 2
WINDOW 3 32 56 VTop 2
SYMATTR InstName R17
SYMATTR Value 470k
SYMBOL res -16 -80 R0
SYMATTR InstName R18
SYMATTR Value 1k
SYMBOL res 112 -96 R90
WINDOW 0 0 56 VBottom 2
WINDOW 3 32 56 VTop 2
SYMATTR InstName R19
SYMATTR Value 10k
SYMBOL OpAmps\\opamp2 1600 640 R180
SYMATTR InstName U7
SYMATTR Value LM348
TEXT -104 -168 Left 2 !.lib LM348.301
TEXT -400 576 Left 2 !;ac dec 100 1 1k
TEXT -304 520 Left 2 !.tran 1m
